Version 4
SHEET 1 2764 740
WIRE 672 -96 528 -96
WIRE 912 -96 672 -96
WIRE 1072 -96 912 -96
WIRE 1328 -96 1072 -96
WIRE 1984 -96 1328 -96
WIRE 2144 -96 1984 -96
WIRE 1984 -64 1984 -96
WIRE 1072 -32 1072 -96
WIRE 2144 0 2144 -96
WIRE 912 16 912 -96
WIRE 528 32 528 -96
WIRE 672 32 672 -96
WIRE 272 48 272 16
WIRE 1872 48 1824 48
WIRE 1984 48 1984 16
WIRE 1984 48 1936 48
WIRE 2080 48 1984 48
WIRE 1552 80 1504 80
WIRE 1728 80 1616 80
WIRE 1984 80 1984 48
WIRE 1072 144 1072 48
WIRE 1216 144 1072 144
WIRE 2512 144 2512 128
WIRE 2704 144 2704 128
WIRE 272 160 272 128
WIRE 1216 176 1216 144
WIRE 1312 176 1216 176
WIRE 1408 176 1392 176
WIRE 1504 176 1504 80
WIRE 1504 176 1472 176
WIRE 1552 176 1504 176
WIRE 1728 176 1728 80
WIRE 1728 176 1632 176
WIRE 1824 176 1824 48
WIRE 1824 176 1728 176
WIRE 2144 176 2144 96
WIRE 2176 176 2176 160
WIRE 2176 176 2144 176
WIRE 2240 176 2176 176
WIRE 2352 176 2320 176
WIRE 672 192 672 112
WIRE 816 192 672 192
WIRE 912 192 912 96
WIRE 912 192 880 192
WIRE 1008 192 912 192
WIRE 1984 192 1984 144
WIRE 528 208 528 112
WIRE 672 208 672 192
WIRE 2352 208 2352 176
WIRE 2512 240 2512 224
WIRE 2512 240 2464 240
WIRE 2704 240 2704 224
WIRE 2704 240 2656 240
WIRE 784 256 736 256
WIRE 1072 256 1072 240
WIRE 1168 256 1072 256
WIRE 1632 256 1616 256
WIRE 2464 256 2464 240
WIRE 2512 256 2512 240
WIRE 2656 256 2656 240
WIRE 2704 256 2704 240
WIRE 1504 272 1504 176
WIRE 1568 272 1504 272
WIRE 2144 272 2144 176
WIRE 784 288 784 256
WIRE 912 288 912 192
WIRE 1072 288 1072 256
WIRE 1168 288 1168 256
WIRE 1728 288 1728 176
WIRE 1728 288 1664 288
WIRE 592 304 528 304
WIRE 672 304 592 304
WIRE 1568 304 1504 304
WIRE 1632 320 1616 320
WIRE 1824 320 1824 176
WIRE 1872 320 1824 320
WIRE 1984 320 1984 256
WIRE 1984 320 1936 320
WIRE 2080 320 1984 320
WIRE 592 336 592 304
WIRE 1984 336 1984 320
WIRE 1504 352 1504 304
WIRE 2512 352 2512 336
WIRE 2704 352 2704 336
WIRE 592 448 592 416
WIRE 912 448 912 368
WIRE 912 448 592 448
WIRE 1072 448 1072 368
WIRE 1072 448 912 448
WIRE 1168 448 1168 352
WIRE 1168 448 1072 448
WIRE 1344 448 1168 448
WIRE 1984 448 1984 416
WIRE 1984 448 1344 448
WIRE 2144 448 2144 368
WIRE 2144 448 1984 448
FLAG 464 256 SIG
IOPIN 464 256 In
FLAG 272 160 0
FLAG 2704 128 Vcc
FLAG 2704 352 Vee
FLAG 272 16 SIG
IOPIN 272 16 In
FLAG 784 288 0
FLAG 2512 128 buffp
FLAG 2512 352 buffn
FLAG 1504 352 0
FLAG 1632 256 buffp
FLAG 1632 320 buffn
FLAG 2352 208 0
FLAG 2176 160 out
IOPIN 2176 160 Out
FLAG 2656 256 0
FLAG 2464 256 0
FLAG 1328 -96 Vcc
FLAG 1344 448 Vee
SYMBOL res 512 16 R0
SYMATTR InstName R1
SYMATTR Value 14k
SYMBOL res 656 16 R0
WINDOW 0 42 45 Left 2
SYMATTR InstName R2
SYMATTR Value 14k
SYMBOL npn 464 208 R0
WINDOW 0 6 -6 Left 2
WINDOW 3 28 42 Left 2
SYMATTR InstName Q1
SYMATTR Value BC547B
SYMBOL npn 736 208 M0
WINDOW 0 -24 12 Left 2
WINDOW 3 24 43 Left 2
SYMATTR InstName Q2
SYMATTR Value BC547B
SYMBOL res 576 320 R0
SYMATTR InstName R3
SYMATTR Value 39k
SYMBOL voltage 272 32 R0
WINDOW 3 -72 -58 VRight 2
WINDOW 123 -36 85 VRight 2
WINDOW 39 0 0 Left 0
SYMATTR Value SINE(0 10m 1k)
SYMATTR Value2 AC 1
SYMATTR InstName V1
SYMBOL npn 1008 144 R0
WINDOW 3 42 60 Left 2
SYMATTR Value BC547B
SYMATTR InstName Q3
SYMBOL cap 880 176 R90
WINDOW 0 0 32 VBottom 2
WINDOW 3 39 28 VTop 2
SYMATTR InstName C1
SYMATTR Value 22µ
SYMBOL res 896 0 R0
SYMATTR InstName R4
SYMATTR Value 13.3Meg
SYMBOL res 1056 -48 R0
SYMATTR InstName Rc1
SYMATTR Value 28k
SYMBOL res 896 272 R0
SYMATTR InstName R5
SYMATTR Value 3.3Meg
SYMBOL res 1056 272 R0
SYMATTR InstName Re1
SYMATTR Value 1k
SYMBOL res 1408 160 R90
WINDOW 0 0 56 VBottom 2
WINDOW 3 32 56 VTop 2
SYMATTR InstName R6
SYMATTR Value 1.8Meg
SYMBOL cap 1472 160 R90
WINDOW 0 0 32 VBottom 2
WINDOW 3 32 32 VTop 2
SYMATTR InstName C4
SYMATTR Value 4n
SYMBOL res 1648 160 R90
WINDOW 0 0 56 VBottom 2
WINDOW 3 32 56 VTop 2
SYMATTR InstName R7
SYMATTR Value 1.8Meg
SYMBOL cap 1616 64 R90
WINDOW 0 0 32 VBottom 2
WINDOW 3 32 32 VTop 2
SYMATTR InstName C5
SYMATTR Value 4p
SYMBOL AutoGenerated\\UA741 1616 288 R0
WINDOW 0 -50 77 Bottom 2
WINDOW 3 14 66 Top 2
SYMATTR InstName U2
SYMBOL res 1968 -80 R0
SYMATTR InstName R8
SYMATTR Value 1k
SYMBOL res 1968 320 R0
SYMATTR InstName R9
SYMATTR Value 1k
SYMBOL cap 1936 32 R90
WINDOW 0 0 32 VBottom 2
WINDOW 3 32 32 VTop 2
SYMATTR InstName C6
SYMATTR Value 100µ
SYMBOL cap 1936 304 R90
WINDOW 0 0 32 VBottom 2
WINDOW 3 32 32 VTop 2
SYMATTR InstName C7
SYMATTR Value 100µ
SYMBOL npn 2080 0 R0
SYMATTR InstName Q4
SYMATTR Value TIP31A
SYMBOL pnp 2080 368 M180
WINDOW 0 50 62 Left 2
WINDOW 3 47 33 Left 2
SYMATTR InstName Q5
SYMATTR Value TIP32
SYMBOL res 2336 160 R90
WINDOW 0 0 56 VBottom 2
WINDOW 3 32 56 VTop 2
SYMATTR InstName RL
SYMATTR Value 12
SYMBOL diode 1968 80 R0
SYMATTR InstName D1
SYMATTR Value 1N4148
SYMBOL diode 1968 192 R0
SYMATTR InstName D2
SYMATTR Value 1N4148
SYMBOL cap 1152 288 R0
SYMATTR InstName C2
SYMATTR Value 1n
SYMBOL voltage 2704 128 R0
WINDOW 123 0 0 Left 0
WINDOW 39 0 0 Left 0
SYMATTR InstName V2
SYMATTR Value 5
SYMBOL voltage 2704 240 R0
WINDOW 123 0 0 Left 0
WINDOW 39 0 0 Left 0
SYMATTR InstName V3
SYMATTR Value 5
SYMBOL voltage 2512 128 R0
WINDOW 123 0 0 Left 0
WINDOW 39 0 0 Left 0
SYMATTR InstName V6
SYMATTR Value 12
SYMBOL voltage 2512 240 R0
WINDOW 123 0 0 Left 0
WINDOW 39 0 0 Left 0
SYMATTR InstName V7
SYMATTR Value 12
TEXT 128 336 Left 2 !;.ac dec 7500 1 1G
TEXT 136 360 Left 2 !.tran 10m
TEXT 136 384 Left 2 !.include UA741.301
TEXT 136 408 Left 2 !.include tip31a.lib
TEXT 136 432 Left 2 !.include tip32a.lib
TEXT 528 -152 Left 2 ;Pre-Amp
TEXT 904 -168 Left 2 ;Common Emmiter Amplifier
TEXT 1472 -8 Left 2 ;Active Band Pass Filter
TEXT 1920 -136 Left 2 ;Power Amplifier
TEXT -408 456 Left 2 !.meas TRAN max d(Vout)/dt MAX D(V(out)) FROM 0ms TO 10m
RECTANGLE Normal 1232 496 880 -144 2
RECTANGLE Normal 1760 400 1312 16 2
RECTANGLE Normal 2240 464 1808 -112 2
RECTANGLE Normal 800 480 464 -128 2
